<?xml version="1.0" encoding="ISO-8859-1"?>
<febio_spec version="1.2">
	<Module type="solid"/>
	<Control>
		<time_steps>10</time_steps>
		<step_size>0.1</step_size>
		<max_refs>15</max_refs>
		<max_ups>10</max_ups>
		<dtol>0.001</dtol>
		<etol>0.01</etol>
		<rtol>0</rtol>
		<lstol>0.9</lstol>
		<time_stepper>
			<dtmin>0.01</dtmin>
			<dtmax>0.1</dtmax>
			<max_retries>5</max_retries>
			<opt_iter>10</opt_iter>
		</time_stepper>
		<analysis type="static"/>
	</Control>
	<Globals>
		<Constants>
			<T>0</T>
			<R>0</R>
			<Fc>0</Fc>
		</Constants>
	</Globals>
	<Material>
		<material id="1" name="Material1" type="Mooney-Rivlin">
			<density>1</density>
			<c1>1</c1>
			<c2>0</c2>
			<k>10</k>
		</material>
		<material id="2" name="Material2" type="Mooney-Rivlin">
			<density>1</density>
			<c1>3</c1>
			<c2>2</c2>
			<k>400</k>
		</material>
	</Material>
	<Geometry>
		<Nodes>
			<node id="1">-5.0000000e+000,-5.0000000e+000, 0.0000000e+000</node>
			<node id="2">-5.0000000e+000,-5.0000000e+000, 1.0000000e+000</node>
			<node id="3">-5.0000000e+000,-4.6666667e+000, 0.0000000e+000</node>
			<node id="4">-5.0000000e+000,-4.6666667e+000, 1.0000000e+000</node>
			<node id="5">-5.0000000e+000,-4.3333333e+000, 0.0000000e+000</node>
			<node id="6">-5.0000000e+000,-4.3333333e+000, 1.0000000e+000</node>
			<node id="7">-5.0000000e+000,-4.0000000e+000, 0.0000000e+000</node>
			<node id="8">-5.0000000e+000,-4.0000000e+000, 1.0000000e+000</node>
			<node id="9">-5.0000000e+000,-3.6666667e+000, 0.0000000e+000</node>
			<node id="10">-5.0000000e+000,-3.6666667e+000, 1.0000000e+000</node>
			<node id="11">-5.0000000e+000,-3.3333333e+000, 0.0000000e+000</node>
			<node id="12">-5.0000000e+000,-3.3333333e+000, 1.0000000e+000</node>
			<node id="13">-5.0000000e+000,-3.0000000e+000, 0.0000000e+000</node>
			<node id="14">-5.0000000e+000,-3.0000000e+000, 1.0000000e+000</node>
			<node id="15">-5.0000000e+000,-2.6666667e+000, 0.0000000e+000</node>
			<node id="16">-5.0000000e+000,-2.6666667e+000, 1.0000000e+000</node>
			<node id="17">-5.0000000e+000,-2.3333333e+000, 0.0000000e+000</node>
			<node id="18">-5.0000000e+000,-2.3333333e+000, 1.0000000e+000</node>
			<node id="19">-5.0000000e+000,-2.0000000e+000, 0.0000000e+000</node>
			<node id="20">-5.0000000e+000,-2.0000000e+000, 1.0000000e+000</node>
<!-- ... 1902 like lines cut -->
		</Nodes>
		<Elements>
			<hex8 id="1" mat="1">     1,    63,    65,     3,     2,    64,    66,     4</hex8>
			<hex8 id="2" mat="2">     3,    65,    67,     5,     4,    66,    68,     6</hex8>
			<hex8 id="3" mat="1">     5,    67,    69,     7,     6,    68,    70,     8</hex8>
			<hex8 id="4" mat="2">     7,    69,    71,     9,     8,    70,    72,    10</hex8>
			<hex8 id="5" mat="1">     9,    71,    73,    11,    10,    72,    74,    12</hex8>
			<hex8 id="6" mat="2">    11,    73,    75,    13,    12,    74,    76,    14</hex8>
			<hex8 id="7" mat="1">    13,    75,    77,    15,    14,    76,    78,    16</hex8>
			<hex8 id="8" mat="2">    15,    77,    79,    17,    16,    78,    80,    18</hex8>
			<hex8 id="9" mat="1">    17,    79,    81,    19,    18,    80,    82,    20</hex8>
			<hex8 id="10" mat="2">    19,    81,    83,    21,    20,    82,    84,    22</hex8>
			<hex8 id="11" mat="1">    21,    83,    85,    23,    22,    84,    86,    24</hex8>
			<hex8 id="12" mat="2">    23,    85,    87,    25,    24,    86,    88,    26</hex8>
			<hex8 id="13" mat="1">    25,    87,    89,    27,    26,    88,    90,    28</hex8>
			<hex8 id="14" mat="1">    27,    89,    91,    29,    28,    90,    92,    30</hex8>
			<hex8 id="15" mat="2">    29,    91,    93,    31,    30,    92,    94,    32</hex8>
			<hex8 id="16" mat="2">    31,    93,    95,    33,    32,    94,    96,    34</hex8>
			<hex8 id="17" mat="1">    33,    95,    97,    35,    34,    96,    98,    36</hex8>
			<hex8 id="18" mat="1">    35,    97,    99,    37,    36,    98,   100,    38</hex8>
			<hex8 id="19" mat="2">    37,    99,   101,    39,    38,   100,   102,    40</hex8>
			<hex8 id="20" mat="1">    39,   101,   103,    41,    40,   102,   104,    42</hex8>
<!-- ... 880 like lines cut -->
		</Elements>
	</Geometry>
	<Boundary>
		<fix>
			<node id="1" bc="xyz"/>
			<node id="2" bc="xyz"/>
			<node id="3" bc="xyz"/>
			<node id="4" bc="xyz"/>
			<node id="5" bc="xyz"/>
			<node id="6" bc="xyz"/>
			<node id="7" bc="xyz"/>
			<node id="8" bc="xyz"/>
			<node id="9" bc="xyz"/>
			<node id="10" bc="xyz"/>
			<node id="11" bc="xyz"/>
			<node id="12" bc="xyz"/>
			<node id="13" bc="xyz"/>
			<node id="14" bc="xyz"/>
			<node id="15" bc="xyz"/>
			<node id="16" bc="xyz"/>
			<node id="17" bc="xyz"/>
			<node id="18" bc="xyz"/>
			<node id="19" bc="xyz"/>
			<node id="20" bc="xyz"/>
<!-- ... 42 like lines cut -->
		</fix>
		<fix>
			<node id="1861" bc="yz"/>
			<node id="1862" bc="yz"/>
			<node id="1863" bc="yz"/>
			<node id="1864" bc="yz"/>
			<node id="1865" bc="yz"/>
			<node id="1866" bc="yz"/>
			<node id="1867" bc="yz"/>
			<node id="1868" bc="yz"/>
			<node id="1869" bc="yz"/>
			<node id="1870" bc="yz"/>
			<node id="1871" bc="yz"/>
			<node id="1872" bc="yz"/>
			<node id="1873" bc="yz"/>
			<node id="1874" bc="yz"/>
			<node id="1875" bc="yz"/>
			<node id="1876" bc="yz"/>
			<node id="1877" bc="yz"/>
			<node id="1878" bc="yz"/>
			<node id="1879" bc="yz"/>
			<node id="1880" bc="yz"/>
<!-- ... 42 like lines cut -->
		</fix>
		<prescribe>
			<node id="1861" bc="x" lc="1">2</node>
			<node id="1862" bc="x" lc="1">2</node>
			<node id="1863" bc="x" lc="1">2</node>
			<node id="1864" bc="x" lc="1">2</node>
			<node id="1865" bc="x" lc="1">2</node>
			<node id="1866" bc="x" lc="1">2</node>
			<node id="1867" bc="x" lc="1">2</node>
			<node id="1868" bc="x" lc="1">2</node>
			<node id="1869" bc="x" lc="1">2</node>
			<node id="1870" bc="x" lc="1">2</node>
			<node id="1871" bc="x" lc="1">2</node>
			<node id="1872" bc="x" lc="1">2</node>
			<node id="1873" bc="x" lc="1">2</node>
			<node id="1874" bc="x" lc="1">2</node>
			<node id="1875" bc="x" lc="1">2</node>
			<node id="1876" bc="x" lc="1">2</node>
			<node id="1877" bc="x" lc="1">2</node>
			<node id="1878" bc="x" lc="1">2</node>
			<node id="1879" bc="x" lc="1">2</node>
			<node id="1880" bc="x" lc="1">2</node>
<!-- ... 42 like lines cut -->
		</prescribe>
	</Boundary>
	<LoadData>
		<loadcurve id="1" type="smooth">
			<loadpoint>0,0</loadpoint>
			<loadpoint>1,1</loadpoint>
		</loadcurve>
	</LoadData>
	<Output>
		<logfile>
			<element_data data="sx;sy;sz" name="data" file="dataFile.txt" delim=","/>
		</logfile>
		<plotfile type="febio">
		</plotfile>
	</Output>
</febio_spec>
